*----------------------------------------------------------------------
* SPICE Model generated by Murata Manufacturing Co., Ltd.
* Copyright(C) Murata Manufacturing Co., Ltd.
* MURATA P/N : BLM18PG221SN1
* Property : Z@100MHz = 220[ohm]
*----------------------------------------------------------------------
* Applicable Conditions:
*   Frequency Range = 1MHz - 3GHz
*   Temperature = 25 degC
*   DC Bias Current = 0 A
*   Small Signal Operation
*----------------------------------------------------------------------
.SUBCKT BLM18PG221SN1 port1 port2
R1 port1 1 66.41
L1 port1 1 1.244e-6
C1 port1 2 5.894e-13
R2 1 2 185.5
L2 1 2 3.355e-7
R3 2 3 29.00
L3 2 3 1.675e-7
R4 3 port2 6.000e-2
.ENDS BLM18PG221SN1
*----------------------------------------------------------------------
