Version 4
SHEET 1 7232 2164
WIRE 2144 1808 2032 1808
WIRE 2336 1808 2224 1808
WIRE 1952 1856 1952 1808
WIRE 1952 1856 1792 1856
WIRE 2416 1856 2416 1808
WIRE 2496 1856 2416 1856
WIRE 2672 1856 2576 1856
WIRE 3920 1856 3872 1856
WIRE 4032 1856 3984 1856
WIRE 4864 1856 4768 1856
WIRE 4944 1856 4864 1856
WIRE 5104 1856 5024 1856
WIRE 5248 1856 5248 1776
WIRE 5248 1856 5104 1856
WIRE 5968 1856 5824 1856
WIRE 6080 1856 6048 1856
WIRE 6304 1856 6304 1776
WIRE 6304 1856 6080 1856
WIRE 4768 1872 4768 1856
WIRE 5824 1872 5824 1856
WIRE 1216 1888 1136 1888
WIRE 1472 1888 1408 1888
WIRE 1952 1888 1952 1856
WIRE 2032 1888 2032 1808
WIRE 2144 1888 2144 1808
WIRE 2144 1888 2032 1888
WIRE 2224 1888 2224 1808
WIRE 2336 1888 2336 1808
WIRE 2336 1888 2224 1888
WIRE 2416 1888 2416 1856
WIRE 3872 1888 3872 1856
WIRE 4032 1888 4032 1856
WIRE 4864 1888 4864 1856
WIRE 5104 1888 5104 1856
WIRE 6080 1888 6080 1856
WIRE 6864 1888 6720 1888
WIRE 6976 1888 6944 1888
WIRE 7200 1888 7200 1808
WIRE 7200 1888 6976 1888
WIRE 6720 1904 6720 1888
WIRE 1136 1920 1136 1888
WIRE 6976 1920 6976 1888
WIRE 1792 1936 1792 1856
WIRE 2672 1952 2672 1856
WIRE 1952 1984 1952 1888
WIRE 2144 1984 1952 1984
WIRE 2336 1984 2336 1888
WIRE 2336 1984 2208 1984
WIRE 1792 2064 1792 2016
FLAG 4864 1952 0
FLAG 5104 1952 0
FLAG 4768 1952 0
FLAG 5248 1776 REF
FLAG 5824 1952 0
FLAG 6304 1776 REF2
FLAG 6080 1952 0
FLAG 5248 1936 0
FLAG 1136 2000 0
FLAG 3872 1968 0
FLAG 1472 1968 0
FLAG 1472 1888 REF3
FLAG 4032 1968 0
FLAG 4032 1856 REF4
FLAG 1792 2064 0
FLAG 2672 2032 0
FLAG 1792 1856 REF6
FLAG 6720 1984 0
FLAG 7200 1808 REF5
FLAG 6976 1984 0
SYMBOL cap 4848 1888 R0
SYMATTR InstName C1
SYMATTR Value 10n
SYMBOL cap 5088 1888 R0
SYMATTR InstName C2
SYMATTR Value 100n
SYMBOL voltage 4768 1856 R0
WINDOW 123 0 0 Left 0
WINDOW 39 0 0 Left 0
SYMATTR InstName V1
SYMATTR Value 5
SYMBOL voltage 5824 1856 R0
WINDOW 123 0 0 Left 0
WINDOW 39 0 0 Left 0
SYMATTR InstName V2
SYMATTR Value 5
SYMBOL res 6064 1840 R90
WINDOW 0 0 56 VBottom 2
WINDOW 3 32 56 VTop 2
SYMATTR InstName R2
SYMATTR Value 10
SYMBOL cap 6064 1888 R0
SYMATTR InstName C3
SYMATTR Value 10n
SYMBOL res 5040 1840 R90
WINDOW 0 0 56 VBottom 2
WINDOW 3 32 56 VTop 2
SYMATTR InstName R1
SYMATTR Value 14
SYMBOL res 5264 1952 R180
WINDOW 0 36 76 Left 2
WINDOW 3 36 40 Left 2
SYMATTR InstName R3
SYMATTR Value 14
SYMBOL voltage 1136 1904 R0
WINDOW 123 0 0 Left 0
WINDOW 39 0 0 Left 0
SYMATTR InstName V3
SYMATTR Value 5
SYMBOL FerriteBead 3952 1856 R90
WINDOW 0 -16 0 VBottom 2
SYMATTR InstName L1
SYMATTR Value 3.2n
SYMATTR SpiceLine Ipk=2 Rser=0.064 Rpar=620 Cpar=1.1p
SYMBOL res 1456 1872 R0
SYMATTR InstName R5
SYMATTR Value 100k
SYMBOL voltage 3872 1872 R0
WINDOW 123 0 0 Left 0
WINDOW 39 0 0 Left 0
SYMATTR InstName V4
SYMATTR Value SINE(0 5 50 0 0 0 10000)
SYMBOL res 4016 1872 R0
SYMATTR InstName R6
SYMATTR Value 100000
SYMBOL res 2048 1792 R90
WINDOW 0 0 56 VBottom 2
WINDOW 3 32 56 VTop 2
SYMATTR InstName R9
SYMATTR Value 66.41
SYMBOL res 2240 1792 R90
WINDOW 0 0 56 VBottom 2
WINDOW 3 32 56 VTop 2
SYMATTR InstName R10
SYMATTR Value 185.5
SYMBOL res 2432 1792 R90
WINDOW 0 0 56 VBottom 2
WINDOW 3 32 56 VTop 2
SYMATTR InstName R11
SYMATTR Value 29
SYMBOL ind 2048 1872 R90
WINDOW 0 5 56 VBottom 2
WINDOW 3 32 56 VTop 2
SYMATTR InstName L3
SYMATTR Value 1.244e-6
SYMBOL ind 2240 1872 R90
WINDOW 0 5 56 VBottom 2
WINDOW 3 32 56 VTop 2
SYMATTR InstName L4
SYMATTR Value 3.355e-7
SYMBOL ind 2432 1872 R90
WINDOW 0 5 56 VBottom 2
WINDOW 3 32 56 VTop 2
SYMATTR InstName L5
SYMATTR Value 1.675e-6
SYMBOL res 2592 1840 R90
WINDOW 0 0 56 VBottom 2
WINDOW 3 32 56 VTop 2
SYMATTR InstName R12
SYMATTR Value 6e-2
SYMBOL cap 2208 1968 R90
WINDOW 0 0 32 VBottom 2
WINDOW 3 32 32 VTop 2
SYMATTR InstName C5
SYMATTR Value 5.894e-13
SYMBOL voltage 2672 1936 R0
WINDOW 123 0 0 Left 0
WINDOW 39 0 0 Left 0
SYMATTR InstName V6
SYMATTR Value SINE(0 10 50 0 0 0 10000)
SYMBOL res 1776 1920 R0
SYMATTR InstName RLOAD
SYMATTR Value 1000k
SYMBOL AutoGenerated\\BLM18PG221SN1 1312 1888 R0
SYMATTR InstName U2
SYMBOL voltage 6720 1888 R0
WINDOW 123 0 0 Left 0
WINDOW 39 0 0 Left 0
SYMATTR InstName V5
SYMATTR Value 5
SYMBOL cap 6960 1920 R0
SYMATTR InstName C4
SYMATTR Value 10n
SYMATTR SpiceLine Rser=0.001
SYMBOL ind 6960 1872 R90
WINDOW 0 5 56 VBottom 2
WINDOW 3 32 56 VTop 2
SYMATTR InstName L2
SYMATTR Value 0.00001
SYMATTR SpiceLine Rser=0.1
TEXT 4736 1976 Left 2 !;tran 0 1ms 0 1us
TEXT 3664 2080 Left 2 !;noise V(REF4) V4 dec 100 1 10000000000k
TEXT 5792 1976 Left 2 !;tran 0 1ms 0 1us
TEXT 5864 2040 Left 2 !;noise V(REF2) V2 dec 100 1 100k
TEXT 1136 2104 Left 2 !;noise V(REF3) V3 dec 100 1 10000000000k
TEXT 2032 2104 Left 2 !;noise V(REF6) V6 dec 100 1 10000000000k
TEXT 1152 1616 Left 6 ;BLM18PG221SN1 Ferrite Bead simulation circuits
TEXT 4856 2064 Left 2 !;noise V(REF) V1 dec 100 1 100k
TEXT 6688 2008 Left 2 !;tran 0 1ms 0 1us
TEXT 6760 2072 Left 2 !.noise V(REF5) V5 dec 100 1 100k
RECTANGLE Normal 3104 2160 1056 1488 2
