Version 4
SHEET 1 2596 1960
WIRE 0 1488 -48 1488
WIRE 208 1488 80 1488
WIRE 448 1488 288 1488
WIRE 608 1488 528 1488
WIRE 0 1696 -48 1696
WIRE 208 1696 80 1696
WIRE 448 1696 288 1696
WIRE 608 1696 608 1488
WIRE 608 1696 528 1696
WIRE 0 1888 -48 1888
WIRE 208 1888 80 1888
WIRE 448 1888 288 1888
WIRE 608 1888 608 1696
WIRE 608 1888 528 1888
FLAG -48 1488 Vu
IOPIN -48 1488 In
FLAG -48 1696 Vv
IOPIN -48 1696 In
FLAG -48 1888 Vw
IOPIN -48 1888 In
FLAG 608 1696 virtualGND
SYMBOL BLDCM\\bldcm 1680 1744 R0
SYMATTR InstName U1
SYMBOL res 96 1472 R90
WINDOW 0 0 56 VBottom 2
WINDOW 3 32 56 VTop 2
SYMATTR InstName R1
SYMATTR Value Rs
SYMBOL ind 304 1472 R90
WINDOW 0 5 56 VBottom 2
WINDOW 3 32 56 VTop 2
SYMATTR InstName L1
SYMATTR Value Ls-M
SYMBOL voltage 432 1488 R270
WINDOW 0 32 56 VTop 2
WINDOW 3 -32 56 VBottom 2
WINDOW 123 0 0 Left 0
WINDOW 39 0 0 Left 0
SYMATTR InstName V1
SYMATTR Value ea
SYMBOL res 96 1680 R90
WINDOW 0 0 56 VBottom 2
WINDOW 3 32 56 VTop 2
SYMATTR InstName R2
SYMATTR Value Rs
SYMBOL ind 304 1680 R90
WINDOW 0 5 56 VBottom 2
WINDOW 3 32 56 VTop 2
SYMATTR InstName L2
SYMATTR Value Ls-M
SYMBOL voltage 432 1696 R270
WINDOW 0 32 56 VTop 2
WINDOW 3 -32 56 VBottom 2
WINDOW 123 0 0 Left 0
WINDOW 39 0 0 Left 0
SYMATTR InstName V2
SYMATTR Value eb
SYMBOL res 96 1872 R90
WINDOW 0 0 56 VBottom 2
WINDOW 3 32 56 VTop 2
SYMATTR InstName R3
SYMATTR Value Rs
SYMBOL ind 304 1872 R90
WINDOW 0 5 56 VBottom 2
WINDOW 3 32 56 VTop 2
SYMATTR InstName L3
SYMATTR Value Ls-M
SYMBOL voltage 432 1888 R270
WINDOW 0 32 56 VTop 2
WINDOW 3 -32 56 VBottom 2
WINDOW 123 0 0 Left 0
WINDOW 39 0 0 Left 0
SYMATTR InstName V3
SYMATTR Value ec
TEXT -64 80 Left 3 ;3-phase BLDC Simulation with optionally 3-phase BLDC motor
TEXT -64 136 Left 2 ;#### ELECTRICAL #####\nSimple modelling of motor: 3 phases with series phase inductance, resistance and back-emf ending in star configuration.\n--- L: self-inductance\n--- M: mutual inductance\n--- e_a,b,c: back-emf   f(theta_e, Va) -> function of electrical angle and voltage amplitude)\n-> consequence of the change in electromagnetic field as a consequence of relative movement between winding and magnet.\n> EM Power Pe = ea*ia + eb*ib + ec*ic (EM Power "Consumed" by the motor)\n> EM Torque Te = Pe / omega (omega: angular rotor frequency)\n \n \n#### MECHANICAL #####\n> F = M * a = m*dV/dt\nSimilarly:\n> T = J * alfa = J * dW / dt (moment of inertia * angular acceleration)\nIn our motor we have the Torques:\n> Te - Tload - To - Bv*W = J*dW/dt\n--- Te: electromagnetic torque\n--- Tload: load torque\n--- To (No-load torque due to rotor-mounted elements)\n--- Bv * W: torque proporitonal to the angular speed of the motor (Friction torque)\nThis becomes:\n> dW/dt = 1/J * (Te - Tload - To - Bv*W)\nAssume steady state (dW/dt = 0)\n> W = (Te - Tload - To) / Bv\n!NOTE: We need the viscuous friction coefficient to actually stabilize the motor speed!\n \n \n#### BACK-EMF ####\nIn case of trapezoidal back-emf\n> Va = Kv * omega_e\n--- omega_e: electrical rotation speed\n1. The amplitude of them is proportional to the angular motor speed.\n2. The phase back emf coefficient Kv
