Version 4
SHEET 1 964 680
WIRE 192 -256 48 -256
WIRE 368 -256 272 -256
WIRE 432 -256 368 -256
WIRE 592 -256 512 -256
WIRE 832 -256 592 -256
WIRE 48 -208 48 -256
WIRE 368 -208 368 -256
WIRE 592 -208 592 -256
WIRE 832 -208 832 -256
WIRE 48 -80 48 -128
WIRE 368 -80 368 -144
WIRE 368 -80 48 -80
WIRE 592 -80 592 -144
WIRE 592 -80 368 -80
WIRE 832 -80 832 -128
WIRE 832 -80 592 -80
WIRE 48 -48 48 -80
WIRE 240 176 176 176
WIRE 352 176 320 176
WIRE 384 176 352 176
WIRE 496 176 464 176
WIRE 512 176 496 176
WIRE 176 208 176 176
WIRE 176 304 176 288
WIRE 352 304 352 176
WIRE 432 304 352 304
WIRE 576 304 576 176
WIRE 576 304 496 304
WIRE 576 336 576 304
FLAG 48 -48 0
FLAG 496 176 Vref
FLAG 576 336 0
FLAG 176 304 0
SYMBOL cap 352 -208 R0
SYMATTR InstName C1
SYMBOL cap 576 -208 R0
SYMATTR InstName C2
SYMBOL res 848 -112 R180
WINDOW 0 36 76 Left 2
WINDOW 3 36 40 Left 2
SYMATTR InstName R1
SYMBOL ind 528 -272 R90
WINDOW 0 5 56 VBottom 2
WINDOW 3 32 56 VTop 2
SYMATTR InstName L2
SYMBOL ind 288 -272 R90
WINDOW 0 5 56 VBottom 2
WINDOW 3 32 56 VTop 2
SYMATTR InstName L1
SYMBOL voltage 48 -224 R0
SYMATTR InstName V1
SYMBOL cap 496 288 R90
WINDOW 0 -10 30 VBottom 2
WINDOW 3 32 32 VTop 2
SYMATTR InstName C1
SYMBOL cap 576 160 R90
WINDOW 0 0 32 VBottom 2
WINDOW 3 35 32 VTop 2
SYMATTR InstName C2
SYMBOL ind 480 160 R90
WINDOW 0 5 56 VBottom 2
WINDOW 3 32 56 VTop 2
SYMATTR InstName L2
SYMBOL ind 336 160 R90
WINDOW 0 5 56 VBottom 2
WINDOW 3 32 56 VTop 2
SYMATTR InstName L1
SYMBOL voltage 176 192 R0
SYMATTR InstName V2
