Version 4
SHEET 1 1228 2156
WIRE 496 -176 432 -176
WIRE 624 -176 576 -176
WIRE -176 -144 -256 -144
WIRE -64 -144 -176 -144
WIRE 128 -144 -64 -144
WIRE 432 -144 432 -176
WIRE 624 -48 624 -176
WIRE 752 -48 624 -48
WIRE 624 -32 624 -48
WIRE -256 0 -256 -144
WIRE 128 0 128 -144
WIRE 176 0 128 0
WIRE 336 0 256 0
WIRE -176 48 -176 -144
WIRE 464 48 416 48
WIRE 576 48 544 48
WIRE 416 80 416 48
WIRE 624 96 624 64
WIRE 752 96 624 96
WIRE 128 112 128 0
WIRE 192 112 128 112
WIRE 336 112 336 64
WIRE 336 112 320 112
WIRE 384 112 336 112
WIRE 448 112 384 112
WIRE 32 144 -112 144
WIRE 192 144 32 144
WIRE 416 144 416 80
WIRE 416 144 320 144
WIRE 624 144 624 96
WIRE 960 144 624 144
WIRE 1152 144 1040 144
WIRE -256 176 -256 80
WIRE 192 176 176 176
WIRE 384 176 320 176
WIRE 448 176 384 176
WIRE 624 176 624 144
WIRE 624 176 448 176
WIRE 176 192 176 176
WIRE 176 192 16 192
WIRE 16 208 16 192
WIRE 192 208 112 208
WIRE 416 208 320 208
WIRE 624 208 624 176
WIRE 416 224 416 208
WIRE -112 240 -112 144
WIRE 416 288 416 224
WIRE 448 288 416 288
WIRE 576 288 528 288
WIRE 688 304 624 304
WIRE -176 352 -176 112
WIRE -112 352 -112 320
WIRE -112 352 -176 352
WIRE 16 352 16 288
WIRE 16 352 -112 352
WIRE 112 352 112 208
WIRE 112 352 16 352
WIRE 624 352 624 304
WIRE -112 400 -112 352
WIRE 624 480 624 432
WIRE 1152 480 1152 224
WIRE 1152 480 624 480
WIRE 496 640 432 640
WIRE 624 640 576 640
WIRE -176 672 -256 672
WIRE -64 672 -176 672
WIRE 128 672 -64 672
WIRE 432 672 432 640
WIRE 624 768 624 640
WIRE 752 768 624 768
WIRE 624 784 624 768
WIRE -256 816 -256 672
WIRE 128 816 128 672
WIRE 176 816 128 816
WIRE 336 816 256 816
WIRE -176 864 -176 672
WIRE 464 864 416 864
WIRE 576 864 544 864
WIRE 416 896 416 864
WIRE 624 912 624 880
WIRE 752 912 624 912
WIRE 128 928 128 816
WIRE 192 928 128 928
WIRE 336 928 336 880
WIRE 336 928 320 928
WIRE 384 928 336 928
WIRE 448 928 384 928
WIRE 32 960 -112 960
WIRE 192 960 32 960
WIRE 416 960 416 896
WIRE 416 960 320 960
WIRE 624 960 624 912
WIRE 960 960 624 960
WIRE 1152 960 1040 960
WIRE -256 992 -256 896
WIRE 192 992 176 992
WIRE 384 992 320 992
WIRE 448 992 384 992
WIRE 624 992 624 960
WIRE 624 992 448 992
WIRE 176 1008 176 992
WIRE 176 1008 16 1008
WIRE 16 1024 16 1008
WIRE 192 1024 112 1024
WIRE 416 1024 320 1024
WIRE 624 1024 624 992
WIRE 416 1040 416 1024
WIRE -112 1056 -112 960
WIRE 416 1104 416 1040
WIRE 448 1104 416 1104
WIRE 576 1104 528 1104
WIRE 688 1120 624 1120
WIRE -176 1168 -176 928
WIRE -112 1168 -112 1136
WIRE -112 1168 -176 1168
WIRE 16 1168 16 1104
WIRE 16 1168 -112 1168
WIRE 112 1168 112 1024
WIRE 112 1168 16 1168
WIRE 624 1168 624 1120
WIRE -112 1216 -112 1168
WIRE 624 1296 624 1248
WIRE 1152 1296 1152 1040
WIRE 1152 1296 624 1296
WIRE 496 1472 432 1472
WIRE 624 1472 576 1472
WIRE -176 1504 -256 1504
WIRE -64 1504 -176 1504
WIRE 128 1504 -64 1504
WIRE 432 1504 432 1472
WIRE 624 1600 624 1472
WIRE 752 1600 624 1600
WIRE 624 1616 624 1600
WIRE -256 1648 -256 1504
WIRE 128 1648 128 1504
WIRE 176 1648 128 1648
WIRE 336 1648 256 1648
WIRE -176 1696 -176 1504
WIRE 464 1696 416 1696
WIRE 576 1696 544 1696
WIRE 416 1728 416 1696
WIRE 624 1744 624 1712
WIRE 752 1744 624 1744
WIRE 128 1760 128 1648
WIRE 192 1760 128 1760
WIRE 336 1760 336 1712
WIRE 336 1760 320 1760
WIRE 384 1760 336 1760
WIRE 448 1760 384 1760
WIRE 32 1792 -112 1792
WIRE 192 1792 32 1792
WIRE 416 1792 416 1728
WIRE 416 1792 320 1792
WIRE 624 1792 624 1744
WIRE 960 1792 624 1792
WIRE 1152 1792 1040 1792
WIRE -256 1824 -256 1728
WIRE 192 1824 176 1824
WIRE 384 1824 320 1824
WIRE 448 1824 384 1824
WIRE 624 1824 624 1792
WIRE 624 1824 448 1824
WIRE 176 1840 176 1824
WIRE 176 1840 16 1840
WIRE 16 1856 16 1840
WIRE 192 1856 112 1856
WIRE 416 1856 320 1856
WIRE 624 1856 624 1824
WIRE 416 1872 416 1856
WIRE -112 1888 -112 1792
WIRE 416 1936 416 1872
WIRE 448 1936 416 1936
WIRE 576 1936 528 1936
WIRE 688 1952 624 1952
WIRE -176 2000 -176 1760
WIRE -112 2000 -112 1968
WIRE -112 2000 -176 2000
WIRE 16 2000 16 1936
WIRE 16 2000 -112 2000
WIRE 112 2000 112 1856
WIRE 112 2000 16 2000
WIRE 624 2000 624 1952
WIRE -112 2048 -112 2000
WIRE 624 2128 624 2080
WIRE 1152 2128 1152 1872
WIRE 1152 2128 624 2128
FLAG -112 400 0
FLAG 624 480 0
FLAG -256 176 0
FLAG 16 192 NSD
IOPIN 16 192 In
FLAG 384 176 Vs
FLAG 384 112 Vb
FLAG 416 80 HO
IOPIN 416 80 Out
FLAG 416 224 LO
IOPIN 416 224 Out
FLAG 624 144 U
IOPIN 624 144 In
FLAG -64 -144 Vcc
FLAG 432 -64 0
FLAG 32 144 PWM
FLAG 752 160 0
FLAG 752 16 0
FLAG 688 368 0
FLAG -112 1216 0
FLAG 624 1296 0
FLAG -256 992 0
FLAG 16 1008 NSD
IOPIN 16 1008 In
FLAG 384 992 Vs
FLAG 384 928 Vb
FLAG 416 896 HO
IOPIN 416 896 Out
FLAG 416 1040 LO
IOPIN 416 1040 Out
FLAG 624 960 U
IOPIN 624 960 In
FLAG -64 672 Vcc
FLAG 432 752 0
FLAG 32 960 PWM
FLAG 752 976 0
FLAG 752 832 0
FLAG 688 1184 0
FLAG -112 2048 0
FLAG 624 2128 0
FLAG -256 1824 0
FLAG 16 1840 NSD
IOPIN 16 1840 In
FLAG 384 1824 Vs
FLAG 384 1760 Vb
FLAG 416 1728 HO
IOPIN 416 1728 Out
FLAG 416 1872 LO
IOPIN 416 1872 Out
FLAG 624 1792 U
IOPIN 624 1792 In
FLAG -64 1504 Vcc
FLAG 432 1584 0
FLAG 32 1792 PWM
FLAG 752 1808 0
FLAG 752 1664 0
FLAG 688 2016 0
SYMBOL nmos 576 208 R0
SYMATTR InstName Mu_L1
SYMATTR Value irfz44n
SYMATTR Prefix X
SYMBOL nmos 576 -32 R0
SYMATTR InstName Mu_U1
SYMATTR Value irfz44n
SYMATTR Prefix X
SYMBOL voltage -112 224 R0
WINDOW 3 -478 229 Left 2
SYMATTR Value PWL REPEAT FOREVER ((0 3.3) (19.9u 3.3) (20u 0) (59.9u 0) (60u 3.3)) ENDREPEAT
SYMATTR InstName Vu_U1
SYMBOL voltage -256 -16 R0
WINDOW 123 0 0 Left 0
WINDOW 39 0 0 Left 0
SYMATTR InstName V1
SYMATTR Value 11
SYMBOL schottky 320 0 R0
WINDOW 0 27 5 Left 2
WINDOW 3 0 -19 Left 2
SYMATTR InstName D1
SYMATTR Value 1N5819
SYMATTR Description Diode
SYMATTR Type diode
SYMBOL cap 432 112 R0
SYMATTR InstName C1
SYMATTR Value 4.7µ
SYMBOL voltage 16 192 R0
WINDOW 3 -595 297 Left 2
SYMATTR Value PWL REPEAT FOREVER ((0 3.3) (19.9u 3.3) (20u 0) (29.9u 0) (30u 3.3)) ENDREPEAT
SYMATTR InstName Vu_U2
SYMBOL res 1056 128 R90
WINDOW 0 0 56 VBottom 2
WINDOW 3 32 56 VTop 2
SYMATTR InstName R1
SYMATTR Value 10
SYMBOL voltage 432 -160 R0
WINDOW 123 0 0 Left 0
WINDOW 39 0 0 Left 0
SYMATTR InstName V2
SYMATTR Value 16
SYMBOL ind 1136 128 R0
SYMATTR InstName L1
SYMATTR Value 100µ
SYMBOL cap -192 48 R0
SYMATTR InstName Cdecoupling1
SYMATTR Value 4.7µ
SYMBOL AutoGenerated\\IR2104 256 160 R0
SYMATTR InstName U1
SYMBOL cap 736 -48 R0
SYMATTR InstName C2
SYMATTR Value 10n
SYMATTR SpiceLine Rser=1
SYMBOL cap 736 96 R0
SYMATTR InstName C3
SYMATTR Value 10n
SYMATTR SpiceLine Rser=1
SYMBOL cap 672 304 R0
SYMATTR InstName C4
SYMATTR Value 10n
SYMATTR SpiceLine Rser=1
SYMBOL ind 592 -192 R90
WINDOW 0 5 56 VBottom 2
WINDOW 3 32 56 VTop 2
SYMATTR InstName L2
SYMATTR Value 5n
SYMBOL ind 640 448 R180
WINDOW 0 36 80 Left 2
WINDOW 3 36 40 Left 2
SYMATTR InstName L3
SYMATTR Value 5n
SYMBOL res 560 32 R90
WINDOW 0 0 56 VBottom 2
WINDOW 3 32 56 VTop 2
SYMATTR InstName R2
SYMATTR Value 50
SYMBOL res 544 272 R90
WINDOW 0 0 56 VBottom 2
WINDOW 3 32 56 VTop 2
SYMATTR InstName R3
SYMATTR Value 50
SYMBOL res 272 -16 R90
WINDOW 0 0 56 VBottom 2
WINDOW 3 32 56 VTop 2
SYMATTR InstName R4
SYMATTR Value 10
SYMBOL nmos 576 1024 R0
SYMATTR InstName Mu_L2
SYMATTR Value irfz44n
SYMATTR Prefix X
SYMBOL nmos 576 784 R0
SYMATTR InstName Mu_U2
SYMATTR Value irfz44n
SYMATTR Prefix X
SYMBOL voltage -112 1040 R0
WINDOW 3 -478 229 Left 2
SYMATTR Value PWL REPEAT FOREVER ((0 0) (19.9u 0) (20u 3.3) (39.9u 3.3) (40u 0)) ENDREPEAT
SYMATTR InstName Vu_U3
SYMBOL voltage -256 800 R0
WINDOW 123 0 0 Left 0
WINDOW 39 0 0 Left 0
SYMATTR InstName V3
SYMATTR Value 11
SYMBOL schottky 320 816 R0
WINDOW 0 27 5 Left 2
WINDOW 3 0 -19 Left 2
SYMATTR InstName D2
SYMATTR Value 1N5819
SYMATTR Description Diode
SYMATTR Type diode
SYMBOL cap 432 928 R0
SYMATTR InstName C5
SYMATTR Value 4.7µ
SYMBOL voltage 16 1008 R0
WINDOW 3 -595 297 Left 2
SYMATTR Value PWL REPEAT FOREVER ((0 3.3) (19.9u 3.3) (20u 0) (29.9u 0) (30u 3.3)) ENDREPEAT
SYMATTR InstName Vu_U4
SYMBOL res 1056 944 R90
WINDOW 0 0 56 VBottom 2
WINDOW 3 32 56 VTop 2
SYMATTR InstName R5
SYMATTR Value 10
SYMBOL voltage 432 656 R0
WINDOW 123 0 0 Left 0
WINDOW 39 0 0 Left 0
SYMATTR InstName V4
SYMATTR Value 16
SYMBOL ind 1136 944 R0
SYMATTR InstName L4
SYMATTR Value 100µ
SYMBOL cap -192 864 R0
SYMATTR InstName Cdecoupling2
SYMATTR Value 4.7µ
SYMBOL AutoGenerated\\IR2104 256 976 R0
SYMATTR InstName U2
SYMBOL cap 736 768 R0
SYMATTR InstName C6
SYMATTR Value 10n
SYMATTR SpiceLine Rser=1
SYMBOL cap 736 912 R0
SYMATTR InstName C7
SYMATTR Value 10n
SYMATTR SpiceLine Rser=1
SYMBOL cap 672 1120 R0
SYMATTR InstName C8
SYMATTR Value 10n
SYMATTR SpiceLine Rser=1
SYMBOL ind 592 624 R90
WINDOW 0 5 56 VBottom 2
WINDOW 3 32 56 VTop 2
SYMATTR InstName L5
SYMATTR Value 5n
SYMBOL ind 640 1264 R180
WINDOW 0 36 80 Left 2
WINDOW 3 36 40 Left 2
SYMATTR InstName L6
SYMATTR Value 5n
SYMBOL res 560 848 R90
WINDOW 0 0 56 VBottom 2
WINDOW 3 32 56 VTop 2
SYMATTR InstName R6
SYMATTR Value 50
SYMBOL res 544 1088 R90
WINDOW 0 0 56 VBottom 2
WINDOW 3 32 56 VTop 2
SYMATTR InstName R7
SYMATTR Value 50
SYMBOL res 272 800 R90
WINDOW 0 0 56 VBottom 2
WINDOW 3 32 56 VTop 2
SYMATTR InstName R8
SYMATTR Value 10
SYMBOL nmos 576 1856 R0
SYMATTR InstName Mu_L3
SYMATTR Value irfz44n
SYMATTR Prefix X
SYMBOL nmos 576 1616 R0
SYMATTR InstName Mu_U3
SYMATTR Value irfz44n
SYMATTR Prefix X
SYMBOL voltage -112 1872 R0
WINDOW 3 -478 229 Left 2
SYMATTR Value PWL REPEAT FOREVER ((0 3.3) (19.9u 3.3) (20u 0) (59.9u 0) (60u 3.3)) ENDREPEAT
SYMATTR InstName Vu_U5
SYMBOL voltage -256 1632 R0
WINDOW 123 0 0 Left 0
WINDOW 39 0 0 Left 0
SYMATTR InstName V5
SYMATTR Value 11
SYMBOL schottky 320 1648 R0
WINDOW 0 27 5 Left 2
WINDOW 3 0 -19 Left 2
SYMATTR InstName D3
SYMATTR Value 1N5819
SYMATTR Description Diode
SYMATTR Type diode
SYMBOL cap 432 1760 R0
SYMATTR InstName C9
SYMATTR Value 4.7µ
SYMBOL voltage 16 1840 R0
WINDOW 3 -595 297 Left 2
SYMATTR Value PWL REPEAT FOREVER ((0 3.3) (19.9u 3.3) (20u 0) (29.9u 0) (30u 3.3)) ENDREPEAT
SYMATTR InstName Vu_U6
SYMBOL res 1056 1776 R90
WINDOW 0 0 56 VBottom 2
WINDOW 3 32 56 VTop 2
SYMATTR InstName R9
SYMATTR Value 10
SYMBOL voltage 432 1488 R0
WINDOW 123 0 0 Left 0
WINDOW 39 0 0 Left 0
SYMATTR InstName V6
SYMATTR Value 16
SYMBOL ind 1136 1776 R0
SYMATTR InstName L7
SYMATTR Value 100µ
SYMBOL cap -192 1696 R0
SYMATTR InstName Cdecoupling3
SYMATTR Value 4.7µ
SYMBOL AutoGenerated\\IR2104 256 1808 R0
SYMATTR InstName U3
SYMBOL cap 736 1600 R0
SYMATTR InstName C10
SYMATTR Value 10n
SYMATTR SpiceLine Rser=1
SYMBOL cap 736 1744 R0
SYMATTR InstName C11
SYMATTR Value 10n
SYMATTR SpiceLine Rser=1
SYMBOL cap 672 1952 R0
SYMATTR InstName C12
SYMATTR Value 10n
SYMATTR SpiceLine Rser=1
SYMBOL ind 592 1456 R90
WINDOW 0 5 56 VBottom 2
WINDOW 3 32 56 VTop 2
SYMATTR InstName L8
SYMATTR Value 5n
SYMBOL ind 640 2096 R180
WINDOW 0 36 80 Left 2
WINDOW 3 36 40 Left 2
SYMATTR InstName L9
SYMATTR Value 5n
SYMBOL res 560 1680 R90
WINDOW 0 0 56 VBottom 2
WINDOW 3 32 56 VTop 2
SYMATTR InstName R10
SYMATTR Value 50
SYMBOL res 544 1920 R90
WINDOW 0 0 56 VBottom 2
WINDOW 3 32 56 VTop 2
SYMATTR InstName R11
SYMATTR Value 50
SYMBOL res 272 1632 R90
WINDOW 0 0 56 VBottom 2
WINDOW 3 32 56 VTop 2
SYMATTR InstName R12
SYMATTR Value 10
TEXT -136 -104 Left 2 !.tran 0 1ms 0 1u7
TEXT -144 -64 Left 2 !.lib irfz44n.spi
TEXT -144 -24 Left 2 !.lib IR2104.lib
TEXT -136 712 Left 2 !.tran 0 1ms 0 1u7
TEXT -144 752 Left 2 !.lib irfz44n.spi
TEXT -144 792 Left 2 !.lib IR2104.lib
TEXT -136 1544 Left 2 !.tran 0 1ms 0 1u7
TEXT -144 1584 Left 2 !.lib irfz44n.spi
TEXT -144 1624 Left 2 !.lib IR2104.lib
