Version 4
SHEET 1 880 680
WIRE 112 80 16 80
WIRE 208 80 112 80
WIRE 352 80 272 80
WIRE 496 80 352 80
WIRE 16 96 16 80
WIRE 112 112 112 80
WIRE 352 112 352 80
WIRE 496 176 496 160
FLAG 112 176 0
FLAG 352 176 0
FLAG 16 176 0
FLAG 496 176 0
SYMBOL cap 96 112 R0
SYMATTR InstName C1
SYMBOL cap 336 112 R0
SYMATTR InstName C2
SYMBOL FerriteBead 240 80 R90
WINDOW 0 -16 0 VBottom 2
SYMATTR InstName L1
SYMBOL voltage 16 80 R0
SYMATTR InstName V1
SYMBOL res 480 64 R0
SYMATTR InstName R1
