Version 4
SHEET 1 2096 1864
WIRE 1184 -16 1088 -16
WIRE 1264 -16 1184 -16
WIRE 1424 -16 1344 -16
WIRE 1568 -16 1568 -96
WIRE 1568 -16 1424 -16
WIRE 1088 0 1088 -16
WIRE 1184 16 1184 -16
WIRE 1424 16 1424 -16
WIRE -1696 80 -1840 80
WIRE -1584 80 -1616 80
WIRE -1360 80 -1360 0
WIRE -1360 80 -1584 80
WIRE -1840 96 -1840 80
WIRE -1584 112 -1584 80
WIRE 1152 368 1040 368
WIRE 1344 368 1232 368
WIRE -192 400 -240 400
WIRE -80 400 -128 400
WIRE 960 416 960 368
WIRE 960 416 800 416
WIRE 1424 416 1424 368
WIRE 1504 416 1424 416
WIRE 1680 416 1584 416
WIRE -240 432 -240 400
WIRE -80 432 -80 400
WIRE 960 448 960 416
WIRE 1040 448 1040 368
WIRE 1152 448 1152 368
WIRE 1152 448 1040 448
WIRE 1232 448 1232 368
WIRE 1344 448 1344 368
WIRE 1344 448 1232 448
WIRE 1424 448 1424 416
WIRE 800 496 800 416
WIRE 1680 512 1680 416
WIRE 960 544 960 448
WIRE 1152 544 960 544
WIRE 1344 544 1344 448
WIRE 1344 544 1216 544
WIRE 800 624 800 576
WIRE 272 656 192 656
WIRE 528 656 464 656
WIRE 192 688 192 656
WIRE 144 1056 144 976
WIRE 144 1056 96 1056
WIRE 224 1056 224 976
WIRE 368 1056 224 1056
WIRE 368 1120 368 1056
WIRE 144 1152 144 1056
WIRE 160 1152 144 1152
WIRE 224 1152 224 1056
WIRE 16 1200 16 1056
WIRE 1280 1248 1072 1248
WIRE 1408 1248 1280 1248
WIRE 1792 1248 1488 1248
WIRE 2016 1248 1792 1248
WIRE 1280 1392 1280 1248
WIRE 1408 1392 1280 1392
WIRE 1792 1392 1792 1248
WIRE 1792 1392 1472 1392
WIRE 1280 1520 1280 1392
WIRE 1504 1520 1360 1520
WIRE 1792 1520 1792 1392
WIRE 1792 1520 1584 1520
WIRE 1792 1600 1792 1520
WIRE 2016 1600 2016 1248
WIRE 1072 1664 1072 1248
WIRE 1072 1760 1072 1744
WIRE 1792 1760 1792 1680
WIRE 1792 1760 1072 1760
WIRE 2016 1760 2016 1664
WIRE 2016 1760 1792 1760
FLAG 1184 80 0
FLAG 1424 80 0
FLAG 1088 80 0
FLAG 1568 -96 REF
FLAG -1840 176 0
FLAG -1360 0 REF2
FLAG -1584 176 0
FLAG 1568 64 0
FLAG 192 768 0
FLAG -240 512 0
FLAG 528 736 0
FLAG 528 656 REF3
FLAG 16 1280 0
FLAG 368 1200 0
FLAG 368 1056 REF5
FLAG -80 512 0
FLAG -80 400 REF4
FLAG 800 624 0
FLAG 1680 592 0
FLAG 800 416 REF6
FLAG 2016 1248 REF7
SYMBOL cap 1168 16 R0
SYMATTR InstName C1
SYMATTR Value 10n
SYMBOL cap 1408 16 R0
SYMATTR InstName C2
SYMATTR Value 100n
SYMBOL voltage 1088 -16 R0
WINDOW 123 0 0 Left 0
WINDOW 39 0 0 Left 0
SYMATTR InstName V1
SYMATTR Value 5
SYMBOL voltage -1840 80 R0
WINDOW 123 0 0 Left 0
WINDOW 39 0 0 Left 0
SYMATTR InstName V2
SYMATTR Value 5
SYMBOL res -1600 64 R90
WINDOW 0 0 56 VBottom 2
WINDOW 3 32 56 VTop 2
SYMATTR InstName R2
SYMATTR Value 10
SYMBOL cap -1600 112 R0
SYMATTR InstName C3
SYMATTR Value 10n
SYMBOL res 1360 -32 R90
WINDOW 0 0 56 VBottom 2
WINDOW 3 32 56 VTop 2
SYMATTR InstName R1
SYMATTR Value 14
SYMBOL res 1584 80 R180
WINDOW 0 36 76 Left 2
WINDOW 3 36 40 Left 2
SYMATTR InstName R3
SYMATTR Value 14
SYMBOL AutoGenerated\\BLM18PG221SN1 368 656 R0
SYMATTR InstName U1
SYMBOL voltage 192 672 R0
WINDOW 123 0 0 Left 0
WINDOW 39 0 0 Left 0
SYMATTR InstName V3
SYMATTR Value 5
SYMBOL FerriteBead -160 400 R90
WINDOW 0 -16 0 VBottom 2
SYMATTR InstName L1
SYMATTR Value 3.2n
SYMATTR SpiceLine Ipk=2 Rser=0.064 Rpar=620 Cpar=1.1p
SYMBOL res 512 640 R0
SYMATTR InstName R5
SYMATTR Value 100k
SYMBOL voltage 16 1184 R0
WINDOW 123 0 0 Left 0
WINDOW 39 0 0 Left 0
SYMATTR InstName V5
SYMATTR Value 5
SYMBOL res 240 1040 R90
WINDOW 0 0 56 VBottom 2
WINDOW 3 32 56 VTop 2
SYMATTR InstName R7
SYMATTR Value 1.082k
SYMBOL cap 224 1136 R90
WINDOW 0 0 32 VBottom 2
WINDOW 3 32 32 VTop 2
SYMATTR InstName C4
SYMATTR Value 1.678p
SYMBOL ind 240 960 R90
WINDOW 0 5 56 VBottom 2
WINDOW 3 32 56 VTop 2
SYMATTR InstName L2
SYMATTR Value 1.208µ
SYMBOL res 112 1040 R90
WINDOW 0 0 56 VBottom 2
WINDOW 3 32 56 VTop 2
SYMATTR InstName R4
SYMATTR Value 0.3
SYMBOL res 352 1104 R0
SYMATTR InstName R8
SYMATTR Value 10000k
SYMBOL voltage -240 416 R0
WINDOW 123 0 0 Left 0
WINDOW 39 0 0 Left 0
SYMATTR InstName V4
SYMATTR Value SINE(0 5 50 0 0 0 10000)
SYMBOL res -96 416 R0
SYMATTR InstName R6
SYMATTR Value 100000
SYMBOL res 1056 352 R90
WINDOW 0 0 56 VBottom 2
WINDOW 3 32 56 VTop 2
SYMATTR InstName R9
SYMATTR Value 66.41
SYMBOL res 1248 352 R90
WINDOW 0 0 56 VBottom 2
WINDOW 3 32 56 VTop 2
SYMATTR InstName R10
SYMATTR Value 185.5
SYMBOL res 1440 352 R90
WINDOW 0 0 56 VBottom 2
WINDOW 3 32 56 VTop 2
SYMATTR InstName R11
SYMATTR Value 29
SYMBOL ind 1056 432 R90
WINDOW 0 5 56 VBottom 2
WINDOW 3 32 56 VTop 2
SYMATTR InstName L3
SYMATTR Value 1.244e-6
SYMBOL ind 1248 432 R90
WINDOW 0 5 56 VBottom 2
WINDOW 3 32 56 VTop 2
SYMATTR InstName L4
SYMATTR Value 3.355e-7
SYMBOL ind 1440 432 R90
WINDOW 0 5 56 VBottom 2
WINDOW 3 32 56 VTop 2
SYMATTR InstName L5
SYMATTR Value 1.675e-6
SYMBOL res 1600 400 R90
WINDOW 0 0 56 VBottom 2
WINDOW 3 32 56 VTop 2
SYMATTR InstName R12
SYMATTR Value 6e-2
SYMBOL cap 1216 528 R90
WINDOW 0 0 32 VBottom 2
WINDOW 3 32 32 VTop 2
SYMATTR InstName C5
SYMATTR Value 5.894e-13
SYMBOL voltage 1680 496 R0
WINDOW 123 0 0 Left 0
WINDOW 39 0 0 Left 0
SYMATTR InstName V6
SYMATTR Value SINE(0 10 50 0 0 0 10000)
SYMBOL res 784 480 R0
SYMATTR InstName RLOAD
SYMATTR Value 1000k
SYMBOL res 1504 1232 R90
WINDOW 0 0 56 VBottom 2
WINDOW 3 32 56 VTop 2
SYMATTR InstName R13
SYMATTR Value 620
SYMBOL cap 1472 1376 R90
WINDOW 0 0 32 VBottom 2
WINDOW 3 32 32 VTop 2
SYMATTR InstName C6
SYMATTR Value 1.1p
SYMBOL res 1376 1504 R90
WINDOW 0 0 56 VBottom 2
WINDOW 3 32 56 VTop 2
SYMATTR InstName R14
SYMATTR Value 0.064
SYMBOL ind 1600 1504 R90
WINDOW 0 5 56 VBottom 2
WINDOW 3 32 56 VTop 2
SYMATTR InstName L6
SYMATTR Value 3.2n
SYMBOL cap 2000 1600 R0
SYMATTR InstName C7
SYMATTR Value 1000n
SYMBOL res 1776 1584 R0
SYMATTR InstName R15
SYMATTR Value 1000
SYMBOL voltage 1072 1648 R0
WINDOW 123 0 0 Left 0
WINDOW 39 0 0 Left 0
SYMATTR InstName V7
SYMATTR Value 5
TEXT 1056 104 Left 2 !;tran 0 1ms 0 1us
TEXT -448 624 Left 2 !;noise V(REF4) V4 dec 100 1 10000000000k
TEXT -1872 200 Left 2 !;tran 0 1ms 0 1us
TEXT -1800 264 Left 2 !;noise V(REF2) V2 dec 100 1 100k
TEXT 288 768 Left 2 !;noise V(REF3) V3 dec 100 1 10000000000k
TEXT -72 1408 Left 2 !;noise V(REF5) V5 dec 100 1 10000000000k
TEXT 1040 664 Left 2 !;noise V(REF6) V6 dec 100 1 10000000000k
TEXT 1168 1848 Left 2 !.noise V(REF7) V7 dec 100 1 10000000000k
